Circuit: * D:\repos\balanced_detector\sims\ltspice_sim\v2\v2.asc

.OP point found by inspection.

Date: Tue Nov 30 17:10:41 2021
Total elapsed time: 0.372 seconds.

tnom = 27
temp = 27
method = modified trap
totiter = 7900
traniter = 7900
tranpoints = 3951
accept = 2577
rejected = 1374
matrix size = 8
fillins = 2
solver = Normal
Matrix Compiler1: 540 bytes object code size  0.2/0.2/[0.1]
Matrix Compiler2: 642 bytes object code size  0.1/0.2/[0.1]

