Circuit: * C:\Users\James Williams\Google Drive\Caltech\Marandi Research\pcbs\2micron_balanced_detector\lpf_on_output.asc

.OP point found by inspection.

Date: Sat May 29 16:31:33 2021
Total elapsed time: 2.335 seconds.

tnom = 27
temp = 27
method = modified trap
totiter = 1849906
traniter = 1849906
tranpoints = 924954
accept = 758301
rejected = 166653
matrix size = 5
fillins = 0
solver = Normal
Matrix Compiler1:       8 opcodes  0.0/[0.0]/0.0
Matrix Compiler2: 321 bytes object code size  0.0/0.1/[0.0]

